%chk=molecule_1.chk
%mem=10GB
# opt b3lyp/6-31g(d)

Title

0 1
C    -2.359323  -1.417664  -1.148035
C    -1.855901  -0.610355   0.066468
C    -2.640824   0.723960   0.101526
C    -2.060460   1.706765   1.109088
C    -0.330833  -0.404447   0.041313
C     0.230757   0.870119   0.315335
C     1.619812   1.063583   0.225593
C     2.476945  -0.003994  -0.068407
C     3.938627   0.213366  -0.161470
O     4.472816   1.486369   0.021749
O     4.713439  -0.750045  -0.409480
C     1.933204  -1.283895  -0.235031
C     0.550737  -1.495530  -0.153841
O     0.063434  -2.798244  -0.244259
C    -0.636870   1.983236   0.757800
O    -0.176873   3.148996   0.898294
H    -2.152162  -2.499168  -1.035483
H    -3.463039  -1.331366  -1.248061
H    -1.892900  -1.045497  -2.085559
H    -2.106556  -1.176648   0.990490
H    -3.701739   0.524056   0.369056
H    -2.630159   1.200108  -0.905573
H    -2.650801   2.648650   1.086782
H    -2.112143   1.279042   2.133517
H     2.036519   2.046082   0.410578
H     5.471305   1.645677  -0.040702
H     2.584096  -2.130769  -0.414946
H     0.678892  -3.592385  -0.376741

