%chk=molecule_5.chk
%mem=10GB
# opt b3lyp/6-31g(d)

Title

0 1
O    -0.792311   3.711809  -2.559338
C    -0.426864   3.206889  -1.315333
C    -0.734838   1.780640  -0.969677
C    -1.870035   1.725288   0.061886
C    -2.450343   0.350142   0.113508
C    -3.796288   0.026646   0.232924
N    -3.964853  -1.310209   0.142902
C    -2.736234  -1.830018  -0.030793
C    -2.411104  -3.172724  -0.205777
O    -3.400881  -4.152893  -0.198833
C    -1.057452  -3.500703  -0.393731
C    -0.069206  -2.494330  -0.389720
C    -0.409102  -1.130337  -0.202795
C     0.660561  -0.087010  -0.090004
C     2.031868  -0.498115   0.413870
C     2.870460   0.658900   1.018654
C     3.589105   1.467909  -0.074184
C     3.905905   0.108554   2.009273
N     0.473931   1.157444  -0.435283
C    -1.776370  -0.845187  -0.041007
O     0.138354   3.957521  -0.474393
H    -0.600925   4.675673  -2.805304
H    -1.036366   1.257051  -1.905324
H    -2.674284   2.439668  -0.223035
H    -1.495237   2.006804   1.069934
H    -4.608914   0.731832   0.349903
H    -4.871119  -1.827624   0.181515
H    -3.174262  -5.132071  -0.327058
H    -0.765777  -4.533202  -0.537575
H     0.960844  -2.792023  -0.533814
H     2.594858  -0.980483  -0.414509
H     1.878235  -1.270609   1.199504
H     2.201135   1.342532   1.587336
H     2.867741   1.906837  -0.792025
H     4.297711   0.822553  -0.636607
H     4.158560   2.304706   0.383738
H     3.396669  -0.413784   2.847204
H     4.590479  -0.606039   1.503305
H     4.506350   0.937964   2.440661

