%chk=molecule_7.chk
%mem=10GB
# opt b3lyp/6-31g(d)

Title

0 1
C    -6.288173   2.697637  -2.865226
O    -4.914062   2.326832  -2.900586
C    -4.274226   1.557680  -1.917090
C    -4.946900   1.077659  -0.777929
C    -4.261286   0.317151   0.181600
C    -2.891262   0.018335  -0.005113
C    -2.194540  -0.734552   0.954844
C    -2.869307  -1.174461   2.117379
C    -2.128969  -1.948370   3.133723
O    -2.691255  -2.340566   4.192185
C    -4.229373  -0.874872   2.292289
C    -4.920885  -0.139638   1.329690
C    -2.226485   0.499831  -1.141081
O    -0.866149   0.246708  -1.338093
C    -0.089049  -0.698415  -0.591777
C     1.258293  -0.031782  -0.309081
C     1.260857   1.156355   0.436228
C     2.449438   1.788667   0.772649
C     3.681703   1.219495   0.426921
C     3.711668   0.008594  -0.321225
C     4.966980  -0.598021  -0.550239
C     6.148636   0.020776  -0.144640
C     6.118275   1.240045   0.526339
O     7.324915   1.843917   0.879960
C     4.885304   1.833021   0.839763
O     4.857013   3.029576   1.561753
C     4.927086   3.037016   2.982127
C     2.482335  -0.570354  -0.767044
C     2.403237  -1.678552  -1.753209
O     3.372613  -1.965046  -2.503946
C    -0.010564  -1.963594  -1.428653
O    -1.220854  -2.646967  -1.652188
C    -1.359168  -3.855222  -2.393879
C     1.145110  -2.397474  -1.953660
C    -0.757778  -1.072260   0.732795
C    -0.082957  -1.804371   1.644364
C    -0.716210  -2.257210   2.890701
O    -0.049468  -2.911974   3.735361
C    -2.916775   1.266733  -2.083916
H    -6.928508   1.790721  -2.866782
H    -6.524057   3.300559  -3.765866
H    -6.494906   3.310675  -1.962868
H    -5.996097   1.298054  -0.629889
H    -4.759651  -1.209991   3.174903
H    -5.970190   0.079279   1.487629
H     0.326379   1.597000   0.762357
H     2.396485   2.709495   1.339615
H     5.064386  -1.572947  -0.997920
H     7.098750  -0.457008  -0.348148
H     7.365694   2.747019   1.335821
H     5.865150   2.551277   3.324168
H     4.910891   4.085795   3.342506
H     4.055517   2.495743   3.407249
H    -2.423891  -4.166275  -2.382739
H    -0.749629  -4.659628  -1.930583
H    -1.047954  -3.694266  -3.447588
H     1.170181  -3.278713  -2.580065
H     0.946955  -2.087967   1.461701
H    -2.393274   1.638854  -2.955597

