%chk=molecule_2.chk
%mem=10GB
# opt b3lyp/6-31g(d)

Title

0 1
O     1.310395  -2.155025  -1.809266
C     1.179109  -1.104137  -1.122429
C    -0.227297  -0.586495  -0.823432
O    -1.005196  -0.789431  -1.979565
C    -0.216344   0.917691  -0.500699
C    -1.429893   1.659225  -0.363146
C    -1.373064   3.059323  -0.101728
C    -2.612389   3.908148   0.046866
C    -0.132308   3.686406   0.047250
C     1.042523   2.956409  -0.022319
C     1.015235   1.583713  -0.278377
C     2.297125   0.856526  -0.262306
C     2.389286  -0.437862  -0.588429
C     3.744894  -1.167820  -0.579350
C     4.464805  -0.893287  -1.906977
O     3.550771  -2.559156  -0.473478
C     4.653954  -0.728280   0.593206
C    -2.766341   0.938557  -0.381830
C    -2.914257   0.027022   0.846351
C    -2.305089  -1.396782   0.711220
C    -2.479312  -2.094683   2.083743
C    -3.104252  -2.243871  -0.312606
C    -0.769426  -1.393196   0.399159
H    -1.061181  -1.764908  -2.157013
H    -2.366284   4.976722   0.225464
H    -3.211474   3.554316   0.912267
H    -3.218340   3.859285  -0.882212
H    -0.069571   4.748976   0.248753
H     1.984103   3.469474   0.134469
H     3.182463   1.409130   0.019964
H     5.439767  -1.425987  -1.935823
H     4.651187   0.194839  -2.036713
H     3.850158  -1.249896  -2.761292
H     3.072054  -2.733670   0.380094
H     5.068867   0.289935   0.438542
H     5.515599  -1.424018   0.686504
H     4.088879  -0.748238   1.549823
H    -3.616793   1.645411  -0.363434
H    -2.920890   0.407991  -1.335697
H    -4.001731  -0.077201   1.061716
H    -2.477923   0.543045   1.731743
H    -2.085162  -3.134001   2.052492
H    -3.551214  -2.142478   2.375794
H    -1.935497  -1.545166   2.882755
H    -3.180505  -1.772107  -1.307608
H    -4.147974  -2.395943   0.038537
H    -2.639477  -3.245184  -0.440067
H    -0.223278  -1.026096   1.298256
H    -0.458712  -2.457225   0.285916

