%chk=molecule_2_ECD.chk
%mem=10GB
# td=(nstates=20,root=20) cam-b3lyp/6-31g(d)

Title

0 1
 O                      1.919317    -1.822238    -0.918257
 C                      1.451094    -0.772971    -0.486848
 C                     -0.112710    -0.626747    -0.513560
 O                     -0.533154    -1.061943    -1.814222
 C                     -0.632540     0.786363    -0.217838
 C                     -2.003982     1.096172    -0.313821
 C                     -2.440805     2.418444    -0.054848
 C                     -3.898098     2.818056    -0.150945
 C                     -1.507275     3.394422     0.314158
 C                     -0.163461     3.083079     0.442344
 C                      0.287509     1.782219     0.177586
 C                      1.703948     1.496571     0.324215
 C                      2.290515     0.309814     0.040027
 C                      3.797341     0.100080     0.188273
 C                      4.463035    -0.118113    -1.183256
 O                      4.306622     1.315568     0.765032
 C                      4.098751    -1.069136     1.143367
 C                     -3.020979     0.012650    -0.619404
 C                     -3.134268    -1.025010     0.520408
 C                     -2.087224    -2.163354     0.526424
 C                     -2.275053    -2.963662     1.835143
 C                     -2.342138    -3.132189    -0.649517
 C                     -0.613181    -1.665368     0.530823
 H                     -0.064341    -0.522887    -2.471213
 H                     -4.307707     2.649809    -1.154455
 H                     -4.018626     3.880972     0.079089
 H                     -4.527828     2.256464     0.549915
 H                     -1.847945     4.407305     0.514084
 H                      0.552070     3.843107     0.745971
 H                      2.333106     2.308645     0.675368
 H                      4.288596     0.751035    -1.825808
 H                      4.071487    -1.013011    -1.670820
 H                      5.547295    -0.239410    -1.055391
 H                      5.265775     1.201531     0.850398
 H                      5.184721    -1.182495     1.260673
 H                      3.666543    -0.868776     2.128997
 H                      3.696756    -2.007777     0.756129
 H                     -2.760735    -0.489397    -1.553814
 H                     -4.003351     0.464412    -0.770041
 H                     -3.100408    -0.494129     1.482321
 H                     -4.125988    -1.495192     0.467796
 H                     -3.286205    -3.385441     1.889484
 H                     -2.127251    -2.330441     2.718738
 H                     -1.563990    -3.796586     1.894933
 H                     -1.621022    -3.957953    -0.628618
 H                     -2.246517    -2.645515    -1.620687
 H                     -3.347711    -3.564751    -0.569039
 H                     -0.384798    -1.239084     1.517372
 H                      0.022922    -2.549446     0.411802


