%chk=molecule_9_ECD.chk
%mem=10GB
# td=(nstates=20,root=20) cam-b3lyp/6-31g(d)

Title

0 1
 O                     -3.968987    -2.703483    -0.696782
 C                     -3.129373    -1.712100    -0.290220
 C                     -3.575926    -0.380541    -0.302880
 O                     -4.875341    -0.161101    -0.746640
 C                     -5.783898     0.258117     0.284773
 C                     -2.711984     0.645042     0.091393
 O                     -3.132295     1.960504     0.089949
 C                     -3.390192     2.511215    -1.207626
 C                     -1.413016     0.365569     0.545508
 C                     -1.009533    -0.981090     0.577925
 O                      0.244019    -1.356500     0.987721
 C                      0.986919    -0.377570     1.726149
 C                      0.983301     0.983189     1.028691
 C                      1.627671     0.933355    -0.380736
 C                      3.076579     0.495480    -0.395140
 C                      3.429927    -0.850493    -0.581893
 C                      4.759487    -1.263605    -0.577604
 C                      5.777265    -0.324060    -0.385114
 O                      7.068946    -0.778808    -0.393242
 C                      5.449838     1.022260    -0.198598
 C                      4.112176     1.418406    -0.205446
 C                     -0.474979     1.476737     0.973763
 C                     -1.845605    -2.016017     0.148501
 H                     -4.777680    -2.253207    -1.004859
 H                     -5.476347     1.221440     0.702240
 H                     -5.833429    -0.488761     1.086864
 H                     -6.763234     0.353412    -0.190542
 H                     -3.680829     3.551325    -1.042036
 H                     -2.486105     2.480530    -1.829117
 H                     -4.197805     1.975365    -1.715759
 H                      0.555900    -0.286388     2.734057
 H                      1.992771    -0.792485     1.813815
 H                      1.572319     1.672133     1.649234
 H                      1.034530     0.268422    -1.018721
 H                      1.545053     1.937006    -0.817866
 H                      2.644651    -1.587988    -0.730063
 H                      5.026442    -2.305344    -0.725947
 H                      7.666254    -0.027718    -0.253960
 H                      6.237872     1.760165    -0.055431
 H                      3.874012     2.471309    -0.067783
 H                     -0.770380     1.854686     1.962865
 H                     -0.567991     2.330399     0.292781
 H                     -1.498685    -3.042559     0.173512


