%chk=molecule_3_ECD.chk
%mem=10GB
# td=(nstates=20,root=20) cam-b3lyp/6-31g(d)

Title

0 1
 O                     -4.121363     1.186332     0.487385
 C                     -3.101368     0.572014     0.226602
 C                     -1.769218     1.377634     0.051106
 O                     -1.864300     2.590792     0.031026
 C                     -3.048684    -0.900017     0.075830
 O                     -4.150684    -1.680643     0.195479
 C                     -5.430151    -1.204755    -0.251053
 C                     -1.843487    -1.504618    -0.070064
 C                     -0.571225    -0.802705    -0.124007
 C                     -0.509933     0.615746    -0.069459
 C                      0.753175     1.238826    -0.131475
 O                      0.805489     2.590971    -0.057514
 C                      1.935671     0.476840    -0.266416
 C                      3.283728     1.172268    -0.316161
 O                      4.365811     0.325388    -0.647078
 C                      4.357002    -0.948214     0.013719
 C                      4.475290    -0.829243     1.535488
 C                      3.122785    -1.729919    -0.456129
 C                      1.855060    -0.915994    -0.312502
 C                      0.605260    -1.543189    -0.239745
 H                     -5.355360    -0.731850    -1.236212
 H                     -5.861458    -0.496843     0.456996
 H                     -6.051848    -2.099807    -0.324891
 H                     -1.822814    -2.589332    -0.134849
 H                      1.726268     2.891444    -0.087797
 H                      3.474259     1.681881     0.647787
 H                      3.290206     1.948672    -1.094879
 H                      5.257984    -1.438895    -0.368099
 H                      5.322922    -0.187972     1.798238
 H                      3.569559    -0.414745     1.991245
 H                      4.644715    -1.817772     1.976705
 H                      3.261986    -1.992516    -1.513541
 H                      3.029298    -2.674552     0.093595
 H                      0.551224    -2.628462    -0.273080


