%chk=molecule_10_ECD.chk
%mem=10GB
# td=(nstates=20,root=20) cam-b3lyp/6-31g(d)

Title

0 1
 O                      4.396573     2.850248    -0.008240
 C                      3.391107     1.942356    -0.069870
 C                      2.046710     2.298056    -0.240030
 C                      1.072301     1.314320    -0.291955
 C                      1.378319    -0.051498    -0.172647
 C                      0.270027    -1.027871    -0.228224
 N                     -0.899810    -0.677178    -0.618224
 C                     -1.862509    -1.772756    -0.624256
 C                     -3.269684    -1.315665    -0.210583
 N                     -3.489045     0.015689    -0.341658
 C                     -4.737268     0.617880     0.051818
 C                     -4.554137     2.113493     0.194169
 O                     -5.704080     2.714712     0.563013
 O                     -3.519328     2.713406    -0.001240
 O                     -4.119598    -2.113383     0.171865
 C                     -1.362154    -2.931185     0.266381
 S                      0.466224    -2.745444     0.286056
 C                      2.733477    -0.409559    -0.009041
 O                      3.057174    -1.718055     0.081024
 C                      3.719966     0.588694     0.042417
 Cl                     5.397243     0.110667     0.246293
 H                      4.022006     3.740010    -0.104827
 H                      1.774459     3.347327    -0.325751
 H                      0.032334     1.590138    -0.420516
 H                     -1.951343    -2.125261    -1.664939
 H                     -2.700305     0.619794    -0.546107
 H                     -5.536794     0.430960    -0.678856
 H                     -5.093384     0.197294     1.000742
 H                     -5.510068     3.668718     0.629260
 H                     -1.632650    -3.907631    -0.136414
 H                     -1.755624    -2.854131     1.283330
 H                      4.017782    -1.804061     0.218919


