%chk=molecule_6_ECD.chk
%mem=10GB
# td=(nstates=20,root=20) cam-b3lyp/6-31g(d)

Title

0 1
 C                      2.697200     1.917386     2.043886
 C                      3.650218     1.348034     1.023597
 C                      3.278821     0.214341     0.270755
 C                      4.147547    -0.342133    -0.673927
 C                      3.733344    -1.567308    -1.459497
 C                      2.542035    -2.269600    -0.798375
 C                      1.455580    -1.269425    -0.361547
 C                      0.383698    -2.004202     0.466160
 C                     -0.759513    -1.133284     1.056254
 C                     -2.012321    -1.102056     0.219460
 C                     -3.249247    -1.500450     0.555941
 C                     -3.649340    -2.080923     1.890523
 C                     -4.379748    -1.379877    -0.463104
 C                     -5.389344    -0.324277    -0.104458
 C                     -5.713080     0.731069    -0.864889
 C                     -6.726991     1.726778    -0.418759
 C                     -6.997231     2.882706    -1.367324
 O                     -7.313409     1.627395     0.649360
 C                      0.868887    -0.501262    -1.554947
 O                      2.038360    -0.312472     0.558278
 C                      5.401110     0.254487    -0.873562
 C                      5.779845     1.376748    -0.143871
 O                      6.995323     1.997275    -0.301974
 C                      4.902486     1.914961     0.804619
 H                      2.450510     1.177823     2.814993
 H                      3.128244     2.795348     2.534063
 H                      1.747678     2.211434     1.580821
 H                      3.479929    -1.285330    -2.491400
 H                      4.577117    -2.264032    -1.539756
 H                      2.884111    -2.807407     0.094647
 H                      2.106550    -3.012585    -1.476724
 H                     -0.040863    -2.806599    -0.150363
 H                      0.913190    -2.491917     1.293035
 H                     -0.380510    -0.112234     1.196136
 H                     -0.988246    -1.500746     2.060531
 H                     -1.882923    -0.708304    -0.789215
 H                     -4.122934    -3.063526     1.757226
 H                     -4.386793    -1.445611     2.398568
 H                     -2.804869    -2.207558     2.571086
 H                     -3.968816    -1.174841    -1.457930
 H                     -4.903139    -2.348799    -0.524204
 H                     -5.902557    -0.416356     0.852368
 H                     -5.239633     0.888125    -1.833493
 H                     -7.752492     3.544770    -0.939938
 H                     -6.075346     3.448491    -1.554471
 H                     -7.343671     2.508194    -2.339324
 H                      1.648295     0.042103    -2.097061
 H                      0.136012     0.234674    -1.213765
 H                      0.377255    -1.186409    -2.255194
 H                      6.082844    -0.176764    -1.606590
 H                      7.499091     1.522150    -0.980380
 H                      5.216017     2.788032     1.369419


