%chk=molecule_4_ECD.chk
%mem=10GB
# td=(nstates=20,root=20) cam-b3lyp/6-31g(d)

Title

0 1
 O                     -2.159581     0.179328     1.929219
 C                     -2.330705    -0.820067     1.037930
 C                     -2.429413    -0.354658    -0.419991
 C                     -1.593996    -1.296847    -1.324451
 C                     -0.154186    -1.322407    -0.920525
 C                      0.710978    -2.390401    -0.896725
 N                      1.946065    -1.982440    -0.437050
 C                      1.884233    -0.640319    -0.140653
 C                      2.875125     0.211957     0.355642
 O                      4.107515    -0.327305     0.608271
 C                      2.532082     1.545353     0.552419
 C                      1.237540     2.008738     0.256133
 C                      0.222825     1.172995    -0.223604
 C                     -1.130171     1.705921    -0.533061
 C                     -1.239481     3.205701    -0.754288
 N                     -2.242829     1.069652    -0.644786
 C                      0.573630    -0.188694    -0.428933
 O                     -2.445949    -1.979767     1.373375
 H                     -2.139102    -0.254496     2.803526
 H                     -3.482177    -0.551959    -0.670394
 H                     -2.024771    -2.301778    -1.273005
 H                     -1.718346    -0.939743    -2.355130
 H                      0.537500    -3.423023    -1.166896
 H                      2.758836    -2.564299    -0.309964
 H                      4.692509     0.369770     0.944137
 H                      3.276156     2.239719     0.937882
 H                      1.032170     3.059875     0.424149
 H                     -1.071701     3.755361     0.180776
 H                     -0.503554     3.565473    -1.482660
 H                     -2.246820     3.432935    -1.105848


