%chk=molecule_1_ECD.chk
%mem=10GB
# td=(nstates=20,root=20) cam-b3lyp/6-31g(d)

Title

0 1
 C                     -2.845949     1.462920     1.155591
 C                     -2.329428     0.966092    -0.213447
 C                     -3.152012    -0.212885    -0.765478
 C                     -2.872185    -1.516998    -0.010354
 C                     -0.857088     0.601836    -0.141346
 C                     -0.416277    -0.731811    -0.035534
 C                      0.949082    -1.039195     0.028997
 C                      1.896285    -0.020167    -0.008138
 C                      3.335965    -0.384276     0.063992
 O                      4.158212     0.699298     0.016853
 O                      3.767461    -1.514550     0.155220
 C                      1.477282     1.315266    -0.111289
 C                      0.120326     1.617087    -0.174280
 O                     -0.329348     2.908192    -0.275743
 C                     -1.393126    -1.869496     0.011301
 O                     -1.014696    -3.027580     0.083465
 H                     -2.760876     0.691476     1.928842
 H                     -3.900263     1.753831     1.079209
 H                     -2.276054     2.335475     1.487308
 H                     -2.425518     1.806525    -0.910978
 H                     -2.905847    -0.354041    -1.826296
 H                     -4.220590     0.029147    -0.719992
 H                     -3.413637    -2.368038    -0.434775
 H                     -3.200163    -1.431230     1.036101
 H                      1.258811    -2.074622     0.108691
 H                      5.063696     0.341689     0.070591
 H                      2.216806     2.110493    -0.143784
 H                      0.433356     3.506171    -0.313379


